/*--------------------------------*- C++ -*----------------------------------*\
  =========                 |
  \\      /  F ield         | OpenFOAM: The Open sensor CFD Toolbox
   \\    /   O peration     | Website:  https://openfoam.org
    \\  /    A nd           | Version:  8
     \\/     M anipulation  |
\*---------------------------------------------------------------------------*/
// Linghui

FoamFile
{
    version     2.0;
    format      ascii;
    class       dictionary;
    location    "constant";
    object      sensorProperties;
}
// * * * * * * * * * * * * * * * * * * * * * * * * * * * * * * * * * * * * * //

x_sensor_1              x_sensor_1 [0 1 0 0 0 0 0] 3.6;
x_sensor_2              x_sensor_2 [0 1 0 0 0 0 0] 7.2;
x_sensor_3              x_sensor_3 [0 1 0 0 0 0 0] 10.8;
x_sensor_4              x_sensor_4 [0 1 0 0 0 0 0] 14.4;

y_sensor_1              y_sensor_1 [0 1 0 0 0 0 0] 3.0;
y_sensor_2              y_sensor_2 [0 1 0 0 0 0 0] 3.0;
y_sensor_3              y_sensor_3 [0 1 0 0 0 0 0] 3.0;
y_sensor_4              y_sensor_4 [0 1 0 0 0 0 0] 3.0;

x_sensor_5              x_sensor_5 [0 1 0 0 0 0 0] 3.6;
x_sensor_6              x_sensor_6 [0 1 0 0 0 0 0] 7.2;
x_sensor_7              x_sensor_7 [0 1 0 0 0 0 0] 10.8;
x_sensor_8              x_sensor_8 [0 1 0 0 0 0 0] 14.4;

y_sensor_5              y_sensor_5 [0 1 0 0 0 0 0] 6.0;
y_sensor_6              y_sensor_6 [0 1 0 0 0 0 0] 6.0;
y_sensor_7              y_sensor_7 [0 1 0 0 0 0 0] 6.0;
y_sensor_8              y_sensor_8 [0 1 0 0 0 0 0] 6.0;

x_sensor_9              x_sensor_9 [0 1 0 0 0 0 0] 3.6;
x_sensor_10             x_sensor_10 [0 1 0 0 0 0 0] 7.2;
x_sensor_11             x_sensor_11 [0 1 0 0 0 0 0] 10.8;
x_sensor_12             x_sensor_12 [0 1 0 0 0 0 0] 14.4;

y_sensor_9              y_sensor_9 [0 1 0 0 0 0 0] 9.0;
y_sensor_10             y_sensor_10 [0 1 0 0 0 0 0] 9.0;
y_sensor_11             y_sensor_11 [0 1 0 0 0 0 0] 9.0;
y_sensor_12             y_sensor_12 [0 1 0 0 0 0 0] 9.0;

sigma                   sigma [0 0 0 0 0 0 0] 0.1;

// ************************************************************************* //
